* NGSPICE file created from top.ext - technology: sky130A

* Black-box entry subcircuit for sky130_fd_sc_hd__decap_6 abstract view
.subckt sky130_fd_sc_hd__decap_6 VGND VNB VPB VPWR
.ends

* Black-box entry subcircuit for sky130_fd_sc_hd__fill_1 abstract view
.subckt sky130_fd_sc_hd__fill_1 VGND VNB VPB VPWR
.ends

* Black-box entry subcircuit for sky130_ef_sc_hd__decap_12 abstract view
.subckt sky130_ef_sc_hd__decap_12 VPWR VGND VPB VNB
.ends

* Black-box entry subcircuit for sky130_fd_sc_hd__diode_2 abstract view
.subckt sky130_fd_sc_hd__diode_2 DIODE VGND VNB VPB VPWR
.ends

* Black-box entry subcircuit for sky130_fd_sc_hd__nand2_4 abstract view
.subckt sky130_fd_sc_hd__nand2_4 A B VGND VNB VPB VPWR Y
.ends

* Black-box entry subcircuit for sky130_fd_sc_hd__dfrtp_2 abstract view
.subckt sky130_fd_sc_hd__dfrtp_2 CLK D RESET_B VGND VNB VPB VPWR Q
.ends

* Black-box entry subcircuit for sky130_fd_sc_hd__fill_2 abstract view
.subckt sky130_fd_sc_hd__fill_2 VGND VNB VPB VPWR
.ends

* Black-box entry subcircuit for sky130_fd_sc_hd__o21a_1 abstract view
.subckt sky130_fd_sc_hd__o21a_1 A1 A2 B1 VGND VNB VPB VPWR X
.ends

* Black-box entry subcircuit for sky130_fd_sc_hd__tapvpwrvgnd_1 abstract view
.subckt sky130_fd_sc_hd__tapvpwrvgnd_1 VGND VPWR
.ends

* Black-box entry subcircuit for sky130_fd_sc_hd__xnor2_1 abstract view
.subckt sky130_fd_sc_hd__xnor2_1 A B VGND VNB VPB VPWR Y
.ends

* Black-box entry subcircuit for sky130_fd_sc_hd__o221a_1 abstract view
.subckt sky130_fd_sc_hd__o221a_1 A1 A2 B1 B2 C1 VGND VNB VPB VPWR X
.ends

* Black-box entry subcircuit for sky130_fd_sc_hd__or3_1 abstract view
.subckt sky130_fd_sc_hd__or3_1 A B C VGND VNB VPB VPWR X
.ends

* Black-box entry subcircuit for sky130_fd_sc_hd__decap_4 abstract view
.subckt sky130_fd_sc_hd__decap_4 VGND VNB VPB VPWR
.ends

* Black-box entry subcircuit for sky130_fd_sc_hd__decap_8 abstract view
.subckt sky130_fd_sc_hd__decap_8 VGND VNB VPB VPWR
.ends

* Black-box entry subcircuit for sky130_fd_sc_hd__inv_2 abstract view
.subckt sky130_fd_sc_hd__inv_2 A VGND VNB VPB VPWR Y
.ends

* Black-box entry subcircuit for sky130_fd_sc_hd__nand2_1 abstract view
.subckt sky130_fd_sc_hd__nand2_1 A B VGND VNB VPB VPWR Y
.ends

* Black-box entry subcircuit for sky130_fd_sc_hd__decap_3 abstract view
.subckt sky130_fd_sc_hd__decap_3 VGND VNB VPB VPWR
.ends

* Black-box entry subcircuit for sky130_fd_sc_hd__dlygate4sd3_1 abstract view
.subckt sky130_fd_sc_hd__dlygate4sd3_1 A VGND VNB VPB VPWR X
.ends

* Black-box entry subcircuit for sky130_fd_sc_hd__or2_1 abstract view
.subckt sky130_fd_sc_hd__or2_1 A B VGND VNB VPB VPWR X
.ends

* Black-box entry subcircuit for sky130_fd_sc_hd__clkbuf_1 abstract view
.subckt sky130_fd_sc_hd__clkbuf_1 A VGND VNB VPB VPWR X
.ends

* Black-box entry subcircuit for sky130_fd_sc_hd__nor2_1 abstract view
.subckt sky130_fd_sc_hd__nor2_1 A B VGND VNB VPB VPWR Y
.ends

* Black-box entry subcircuit for sky130_fd_sc_hd__mux2_1 abstract view
.subckt sky130_fd_sc_hd__mux2_1 A0 A1 S VGND VNB VPB VPWR X
.ends

* Black-box entry subcircuit for sky130_fd_sc_hd__mux2_2 abstract view
.subckt sky130_fd_sc_hd__mux2_2 A0 A1 S VGND VNB VPB VPWR X
.ends

* Black-box entry subcircuit for sky130_fd_sc_hd__or2b_1 abstract view
.subckt sky130_fd_sc_hd__or2b_1 A B_N VGND VNB VPB VPWR X
.ends

* Black-box entry subcircuit for sky130_fd_sc_hd__a22o_1 abstract view
.subckt sky130_fd_sc_hd__a22o_1 A1 A2 B1 B2 VGND VNB VPB VPWR X
.ends

* Black-box entry subcircuit for sky130_fd_sc_hd__clkbuf_4 abstract view
.subckt sky130_fd_sc_hd__clkbuf_4 A VGND VNB VPB VPWR X
.ends

* Black-box entry subcircuit for sky130_fd_sc_hd__a211oi_1 abstract view
.subckt sky130_fd_sc_hd__a211oi_1 A1 A2 B1 C1 VGND VNB VPB VPWR Y
.ends

* Black-box entry subcircuit for sky130_fd_sc_hd__o22ai_1 abstract view
.subckt sky130_fd_sc_hd__o22ai_1 A1 A2 B1 B2 VGND VNB VPB VPWR Y
.ends

* Black-box entry subcircuit for sky130_fd_sc_hd__dfrtp_1 abstract view
.subckt sky130_fd_sc_hd__dfrtp_1 CLK D RESET_B VGND VNB VPB VPWR Q
.ends

* Black-box entry subcircuit for sky130_fd_sc_hd__a32o_1 abstract view
.subckt sky130_fd_sc_hd__a32o_1 A1 A2 A3 B1 B2 VGND VNB VPB VPWR X
.ends

* Black-box entry subcircuit for sky130_fd_sc_hd__a31o_1 abstract view
.subckt sky130_fd_sc_hd__a31o_1 A1 A2 A3 B1 VGND VNB VPB VPWR X
.ends

* Black-box entry subcircuit for sky130_fd_sc_hd__buf_2 abstract view
.subckt sky130_fd_sc_hd__buf_2 A VGND VNB VPB VPWR X
.ends

* Black-box entry subcircuit for sky130_fd_sc_hd__dfstp_1 abstract view
.subckt sky130_fd_sc_hd__dfstp_1 CLK D SET_B VGND VNB VPB VPWR Q
.ends

* Black-box entry subcircuit for sky130_fd_sc_hd__o211a_1 abstract view
.subckt sky130_fd_sc_hd__o211a_1 A1 A2 B1 C1 VGND VNB VPB VPWR X
.ends

* Black-box entry subcircuit for sky130_fd_sc_hd__a21oi_1 abstract view
.subckt sky130_fd_sc_hd__a21oi_1 A1 A2 B1 VGND VNB VPB VPWR Y
.ends

* Black-box entry subcircuit for sky130_fd_sc_hd__xor2_2 abstract view
.subckt sky130_fd_sc_hd__xor2_2 A B VGND VNB VPB VPWR X
.ends

* Black-box entry subcircuit for sky130_fd_sc_hd__o22a_1 abstract view
.subckt sky130_fd_sc_hd__o22a_1 A1 A2 B1 B2 VGND VNB VPB VPWR X
.ends

* Black-box entry subcircuit for sky130_fd_sc_hd__dlymetal6s2s_1 abstract view
.subckt sky130_fd_sc_hd__dlymetal6s2s_1 A VGND VNB VPB VPWR X
.ends

* Black-box entry subcircuit for sky130_fd_sc_hd__o21ai_1 abstract view
.subckt sky130_fd_sc_hd__o21ai_1 A1 A2 B1 VGND VNB VPB VPWR Y
.ends

* Black-box entry subcircuit for sky130_fd_sc_hd__a221o_1 abstract view
.subckt sky130_fd_sc_hd__a221o_1 A1 A2 B1 B2 C1 VGND VNB VPB VPWR X
.ends

* Black-box entry subcircuit for sky130_fd_sc_hd__a22oi_1 abstract view
.subckt sky130_fd_sc_hd__a22oi_1 A1 A2 B1 B2 VGND VNB VPB VPWR Y
.ends

* Black-box entry subcircuit for sky130_fd_sc_hd__and2_1 abstract view
.subckt sky130_fd_sc_hd__and2_1 A B VGND VNB VPB VPWR X
.ends

* Black-box entry subcircuit for sky130_fd_sc_hd__dfrtp_4 abstract view
.subckt sky130_fd_sc_hd__dfrtp_4 CLK D RESET_B VGND VNB VPB VPWR Q
.ends

* Black-box entry subcircuit for sky130_fd_sc_hd__nand3_2 abstract view
.subckt sky130_fd_sc_hd__nand3_2 A B C VGND VNB VPB VPWR Y
.ends

* Black-box entry subcircuit for sky130_fd_sc_hd__a21o_1 abstract view
.subckt sky130_fd_sc_hd__a21o_1 A1 A2 B1 VGND VNB VPB VPWR X
.ends

* Black-box entry subcircuit for sky130_fd_sc_hd__a21bo_1 abstract view
.subckt sky130_fd_sc_hd__a21bo_1 A1 A2 B1_N VGND VNB VPB VPWR X
.ends

* Black-box entry subcircuit for sky130_fd_sc_hd__o21ai_2 abstract view
.subckt sky130_fd_sc_hd__o21ai_2 A1 A2 B1 VGND VNB VPB VPWR Y
.ends

* Black-box entry subcircuit for sky130_fd_sc_hd__o21bai_1 abstract view
.subckt sky130_fd_sc_hd__o21bai_1 A1 A2 B1_N VGND VNB VPB VPWR Y
.ends

* Black-box entry subcircuit for sky130_fd_sc_hd__or3b_1 abstract view
.subckt sky130_fd_sc_hd__or3b_1 A B C_N VGND VNB VPB VPWR X
.ends

* Black-box entry subcircuit for sky130_fd_sc_hd__and4_1 abstract view
.subckt sky130_fd_sc_hd__and4_1 A B C D VGND VNB VPB VPWR X
.ends

* Black-box entry subcircuit for sky130_fd_sc_hd__and2b_1 abstract view
.subckt sky130_fd_sc_hd__and2b_1 A_N B VGND VNB VPB VPWR X
.ends

* Black-box entry subcircuit for sky130_fd_sc_hd__nand3_1 abstract view
.subckt sky130_fd_sc_hd__nand3_1 A B C VGND VNB VPB VPWR Y
.ends

* Black-box entry subcircuit for sky130_fd_sc_hd__and3_1 abstract view
.subckt sky130_fd_sc_hd__and3_1 A B C VGND VNB VPB VPWR X
.ends

* Black-box entry subcircuit for sky130_fd_sc_hd__nand4_1 abstract view
.subckt sky130_fd_sc_hd__nand4_1 A B C D VGND VNB VPB VPWR Y
.ends

* Black-box entry subcircuit for sky130_fd_sc_hd__buf_4 abstract view
.subckt sky130_fd_sc_hd__buf_4 A VGND VNB VPB VPWR X
.ends

* Black-box entry subcircuit for sky130_fd_sc_hd__nor2_4 abstract view
.subckt sky130_fd_sc_hd__nor2_4 A B VGND VNB VPB VPWR Y
.ends

* Black-box entry subcircuit for sky130_fd_sc_hd__o22ai_2 abstract view
.subckt sky130_fd_sc_hd__o22ai_2 A1 A2 B1 B2 VGND VNB VPB VPWR Y
.ends

* Black-box entry subcircuit for sky130_fd_sc_hd__nand2_2 abstract view
.subckt sky130_fd_sc_hd__nand2_2 A B VGND VNB VPB VPWR Y
.ends

* Black-box entry subcircuit for sky130_fd_sc_hd__o211ai_2 abstract view
.subckt sky130_fd_sc_hd__o211ai_2 A1 A2 B1 C1 VGND VNB VPB VPWR Y
.ends

* Black-box entry subcircuit for sky130_fd_sc_hd__a22oi_2 abstract view
.subckt sky130_fd_sc_hd__a22oi_2 A1 A2 B1 B2 VGND VNB VPB VPWR Y
.ends

* Black-box entry subcircuit for sky130_fd_sc_hd__clkbuf_16 abstract view
.subckt sky130_fd_sc_hd__clkbuf_16 A VGND VNB VPB VPWR X
.ends

* Black-box entry subcircuit for sky130_fd_sc_hd__nor4_4 abstract view
.subckt sky130_fd_sc_hd__nor4_4 A B C D VGND VNB VPB VPWR Y
.ends

* Black-box entry subcircuit for sky130_fd_sc_hd__clkbuf_8 abstract view
.subckt sky130_fd_sc_hd__clkbuf_8 A VGND VNB VPB VPWR X
.ends

* Black-box entry subcircuit for sky130_fd_sc_hd__a2bb2o_1 abstract view
.subckt sky130_fd_sc_hd__a2bb2o_1 A1_N A2_N B1 B2 VGND VNB VPB VPWR X
.ends

* Black-box entry subcircuit for sky130_fd_sc_hd__nor3_1 abstract view
.subckt sky130_fd_sc_hd__nor3_1 A B C VGND VNB VPB VPWR Y
.ends

* Black-box entry subcircuit for sky130_fd_sc_hd__o32a_1 abstract view
.subckt sky130_fd_sc_hd__o32a_1 A1 A2 A3 B1 B2 VGND VNB VPB VPWR X
.ends

* Black-box entry subcircuit for sky130_fd_sc_hd__xor2_1 abstract view
.subckt sky130_fd_sc_hd__xor2_1 A B VGND VNB VPB VPWR X
.ends

* Black-box entry subcircuit for sky130_fd_sc_hd__o21ba_1 abstract view
.subckt sky130_fd_sc_hd__o21ba_1 A1 A2 B1_N VGND VNB VPB VPWR X
.ends

* Black-box entry subcircuit for sky130_fd_sc_hd__or4_2 abstract view
.subckt sky130_fd_sc_hd__or4_2 A B C D VGND VNB VPB VPWR X
.ends

* Black-box entry subcircuit for sky130_fd_sc_hd__a211o_1 abstract view
.subckt sky130_fd_sc_hd__a211o_1 A1 A2 B1 C1 VGND VNB VPB VPWR X
.ends

* Black-box entry subcircuit for sky130_fd_sc_hd__clkbuf_2 abstract view
.subckt sky130_fd_sc_hd__clkbuf_2 A VGND VNB VPB VPWR X
.ends

* Black-box entry subcircuit for sky130_fd_sc_hd__dfstp_2 abstract view
.subckt sky130_fd_sc_hd__dfstp_2 CLK D SET_B VGND VNB VPB VPWR Q
.ends

* Black-box entry subcircuit for sky130_fd_sc_hd__nand3_4 abstract view
.subckt sky130_fd_sc_hd__nand3_4 A B C VGND VNB VPB VPWR Y
.ends

* Black-box entry subcircuit for sky130_fd_sc_hd__clkinv_4 abstract view
.subckt sky130_fd_sc_hd__clkinv_4 A VGND VNB VPB VPWR Y
.ends

* Black-box entry subcircuit for sky130_fd_sc_hd__a211oi_2 abstract view
.subckt sky130_fd_sc_hd__a211oi_2 A1 A2 B1 C1 VGND VNB VPB VPWR Y
.ends

* Black-box entry subcircuit for sky130_fd_sc_hd__nand4_2 abstract view
.subckt sky130_fd_sc_hd__nand4_2 A B C D VGND VNB VPB VPWR Y
.ends

* Black-box entry subcircuit for sky130_fd_sc_hd__and4b_1 abstract view
.subckt sky130_fd_sc_hd__and4b_1 A_N B C D VGND VNB VPB VPWR X
.ends

* Black-box entry subcircuit for sky130_fd_sc_hd__a311o_1 abstract view
.subckt sky130_fd_sc_hd__a311o_1 A1 A2 A3 B1 C1 VGND VNB VPB VPWR X
.ends

* Black-box entry subcircuit for sky130_fd_sc_hd__nor3b_1 abstract view
.subckt sky130_fd_sc_hd__nor3b_1 A B C_N VGND VNB VPB VPWR Y
.ends

* Black-box entry subcircuit for sky130_fd_sc_hd__nor3b_4 abstract view
.subckt sky130_fd_sc_hd__nor3b_4 A B C_N VGND VNB VPB VPWR Y
.ends

* Black-box entry subcircuit for sky130_fd_sc_hd__clkinvlp_4 abstract view
.subckt sky130_fd_sc_hd__clkinvlp_4 A VGND VNB VPB VPWR Y
.ends

* Black-box entry subcircuit for sky130_fd_sc_hd__o2111a_1 abstract view
.subckt sky130_fd_sc_hd__o2111a_1 A1 A2 B1 C1 D1 VGND VNB VPB VPWR X
.ends

* Black-box entry subcircuit for sky130_fd_sc_hd__or4_1 abstract view
.subckt sky130_fd_sc_hd__or4_1 A B C D VGND VNB VPB VPWR X
.ends

* Black-box entry subcircuit for sky130_fd_sc_hd__o211ai_1 abstract view
.subckt sky130_fd_sc_hd__o211ai_1 A1 A2 B1 C1 VGND VNB VPB VPWR Y
.ends

* Black-box entry subcircuit for sky130_fd_sc_hd__o2bb2a_1 abstract view
.subckt sky130_fd_sc_hd__o2bb2a_1 A1_N A2_N B1 B2 VGND VNB VPB VPWR X
.ends

* Black-box entry subcircuit for sky130_fd_sc_hd__nand3b_1 abstract view
.subckt sky130_fd_sc_hd__nand3b_1 A_N B C VGND VNB VPB VPWR Y
.ends

* Black-box entry subcircuit for sky130_fd_sc_hd__a21boi_1 abstract view
.subckt sky130_fd_sc_hd__a21boi_1 A1 A2 B1_N VGND VNB VPB VPWR Y
.ends

* Black-box entry subcircuit for sky130_fd_sc_hd__o311a_1 abstract view
.subckt sky130_fd_sc_hd__o311a_1 A1 A2 A3 B1 C1 VGND VNB VPB VPWR X
.ends

* Black-box entry subcircuit for sky130_fd_sc_hd__xnor2_2 abstract view
.subckt sky130_fd_sc_hd__xnor2_2 A B VGND VNB VPB VPWR Y
.ends

* Black-box entry subcircuit for sky130_fd_sc_hd__bufinv_16 abstract view
.subckt sky130_fd_sc_hd__bufinv_16 A VGND VNB VPB VPWR Y
.ends

* Black-box entry subcircuit for sky130_fd_sc_hd__clkinv_1 abstract view
.subckt sky130_fd_sc_hd__clkinv_1 A VGND VNB VPB VPWR Y
.ends

* Black-box entry subcircuit for sky130_fd_sc_hd__inv_6 abstract view
.subckt sky130_fd_sc_hd__inv_6 A VGND VNB VPB VPWR Y
.ends

* Black-box entry subcircuit for sky130_fd_sc_hd__a21oi_2 abstract view
.subckt sky130_fd_sc_hd__a21oi_2 A1 A2 B1 VGND VNB VPB VPWR Y
.ends

* Black-box entry subcircuit for sky130_fd_sc_hd__a2bb2oi_1 abstract view
.subckt sky130_fd_sc_hd__a2bb2oi_1 A1_N A2_N B1 B2 VGND VNB VPB VPWR Y
.ends

* Black-box entry subcircuit for sky130_fd_sc_hd__mux4_1 abstract view
.subckt sky130_fd_sc_hd__mux4_1 A0 A1 A2 A3 S0 S1 VGND VNB VPB VPWR X
.ends

* Black-box entry subcircuit for sky130_fd_sc_hd__clkinv_2 abstract view
.subckt sky130_fd_sc_hd__clkinv_2 A VGND VNB VPB VPWR Y
.ends

* Black-box entry subcircuit for sky130_fd_sc_hd__inv_8 abstract view
.subckt sky130_fd_sc_hd__inv_8 A VGND VNB VPB VPWR Y
.ends

* Black-box entry subcircuit for sky130_fd_sc_hd__nor2_2 abstract view
.subckt sky130_fd_sc_hd__nor2_2 A B VGND VNB VPB VPWR Y
.ends

* Black-box entry subcircuit for sky130_fd_sc_hd__o31ai_1 abstract view
.subckt sky130_fd_sc_hd__o31ai_1 A1 A2 A3 B1 VGND VNB VPB VPWR Y
.ends

* Black-box entry subcircuit for sky130_fd_sc_hd__and4bb_2 abstract view
.subckt sky130_fd_sc_hd__and4bb_2 A_N B_N C D VGND VNB VPB VPWR X
.ends

* Black-box entry subcircuit for sky130_fd_sc_hd__clkinvlp_2 abstract view
.subckt sky130_fd_sc_hd__clkinvlp_2 A VGND VNB VPB VPWR Y
.ends

* Black-box entry subcircuit for sky130_fd_sc_hd__a21boi_2 abstract view
.subckt sky130_fd_sc_hd__a21boi_2 A1 A2 B1_N VGND VNB VPB VPWR Y
.ends

* Black-box entry subcircuit for sky130_fd_sc_hd__and4bb_1 abstract view
.subckt sky130_fd_sc_hd__and4bb_1 A_N B_N C D VGND VNB VPB VPWR X
.ends

* Black-box entry subcircuit for sky130_fd_sc_hd__o21a_2 abstract view
.subckt sky130_fd_sc_hd__o21a_2 A1 A2 B1 VGND VNB VPB VPWR X
.ends

* Black-box entry subcircuit for sky130_fd_sc_hd__a2111o_1 abstract view
.subckt sky130_fd_sc_hd__a2111o_1 A1 A2 B1 C1 D1 VGND VNB VPB VPWR X
.ends

* Black-box entry subcircuit for sky130_fd_sc_hd__or2_2 abstract view
.subckt sky130_fd_sc_hd__or2_2 A B VGND VNB VPB VPWR X
.ends

* Black-box entry subcircuit for sky130_fd_sc_hd__nor3_2 abstract view
.subckt sky130_fd_sc_hd__nor3_2 A B C VGND VNB VPB VPWR Y
.ends

* Black-box entry subcircuit for sky130_fd_sc_hd__clkinv_8 abstract view
.subckt sky130_fd_sc_hd__clkinv_8 A VGND VNB VPB VPWR Y
.ends

* Black-box entry subcircuit for sky130_fd_sc_hd__and2b_2 abstract view
.subckt sky130_fd_sc_hd__and2b_2 A_N B VGND VNB VPB VPWR X
.ends

* Black-box entry subcircuit for sky130_fd_sc_hd__o21ai_4 abstract view
.subckt sky130_fd_sc_hd__o21ai_4 A1 A2 B1 VGND VNB VPB VPWR Y
.ends

* Black-box entry subcircuit for sky130_fd_sc_hd__and3_4 abstract view
.subckt sky130_fd_sc_hd__and3_4 A B C VGND VNB VPB VPWR X
.ends

* Black-box entry subcircuit for sky130_fd_sc_hd__a21oi_4 abstract view
.subckt sky130_fd_sc_hd__a21oi_4 A1 A2 B1 VGND VNB VPB VPWR Y
.ends

* Black-box entry subcircuit for sky130_fd_sc_hd__xnor2_4 abstract view
.subckt sky130_fd_sc_hd__xnor2_4 A B VGND VNB VPB VPWR Y
.ends

* Black-box entry subcircuit for sky130_fd_sc_hd__a2111oi_1 abstract view
.subckt sky130_fd_sc_hd__a2111oi_1 A1 A2 B1 C1 D1 VGND VNB VPB VPWR Y
.ends

* Black-box entry subcircuit for sky130_fd_sc_hd__and3b_1 abstract view
.subckt sky130_fd_sc_hd__and3b_1 A_N B C VGND VNB VPB VPWR X
.ends

* Black-box entry subcircuit for sky130_fd_sc_hd__o31a_1 abstract view
.subckt sky130_fd_sc_hd__o31a_1 A1 A2 A3 B1 VGND VNB VPB VPWR X
.ends

* Black-box entry subcircuit for sky130_fd_sc_hd__a41o_4 abstract view
.subckt sky130_fd_sc_hd__a41o_4 A1 A2 A3 A4 B1 VGND VNB VPB VPWR X
.ends

* Black-box entry subcircuit for sky130_fd_sc_hd__o211a_2 abstract view
.subckt sky130_fd_sc_hd__o211a_2 A1 A2 B1 C1 VGND VNB VPB VPWR X
.ends

* Black-box entry subcircuit for sky130_fd_sc_hd__or4b_1 abstract view
.subckt sky130_fd_sc_hd__or4b_1 A B C D_N VGND VNB VPB VPWR X
.ends

* Black-box entry subcircuit for sky130_fd_sc_hd__or4bb_1 abstract view
.subckt sky130_fd_sc_hd__or4bb_1 A B C_N D_N VGND VNB VPB VPWR X
.ends

* Black-box entry subcircuit for sky130_fd_sc_hd__o2bb2ai_1 abstract view
.subckt sky130_fd_sc_hd__o2bb2ai_1 A1_N A2_N B1 B2 VGND VNB VPB VPWR Y
.ends

* Black-box entry subcircuit for sky130_fd_sc_hd__nand4_4 abstract view
.subckt sky130_fd_sc_hd__nand4_4 A B C D VGND VNB VPB VPWR Y
.ends

* Black-box entry subcircuit for sky130_fd_sc_hd__o32a_4 abstract view
.subckt sky130_fd_sc_hd__o32a_4 A1 A2 A3 B1 B2 VGND VNB VPB VPWR X
.ends

* Black-box entry subcircuit for sky130_fd_sc_hd__a221oi_1 abstract view
.subckt sky130_fd_sc_hd__a221oi_1 A1 A2 B1 B2 C1 VGND VNB VPB VPWR Y
.ends

* Black-box entry subcircuit for sky130_fd_sc_hd__and2_2 abstract view
.subckt sky130_fd_sc_hd__and2_2 A B VGND VNB VPB VPWR X
.ends

* Black-box entry subcircuit for sky130_fd_sc_hd__o211ai_4 abstract view
.subckt sky130_fd_sc_hd__o211ai_4 A1 A2 B1 C1 VGND VNB VPB VPWR Y
.ends

* Black-box entry subcircuit for sky130_fd_sc_hd__o31ai_2 abstract view
.subckt sky130_fd_sc_hd__o31ai_2 A1 A2 A3 B1 VGND VNB VPB VPWR Y
.ends

* Black-box entry subcircuit for sky130_fd_sc_hd__or3_2 abstract view
.subckt sky130_fd_sc_hd__or3_2 A B C VGND VNB VPB VPWR X
.ends

* Black-box entry subcircuit for sky130_fd_sc_hd__a211oi_4 abstract view
.subckt sky130_fd_sc_hd__a211oi_4 A1 A2 B1 C1 VGND VNB VPB VPWR Y
.ends

* Black-box entry subcircuit for sky130_fd_sc_hd__a221oi_4 abstract view
.subckt sky130_fd_sc_hd__a221oi_4 A1 A2 B1 B2 C1 VGND VNB VPB VPWR Y
.ends

* Black-box entry subcircuit for sky130_fd_sc_hd__or4_4 abstract view
.subckt sky130_fd_sc_hd__or4_4 A B C D VGND VNB VPB VPWR X
.ends

* Black-box entry subcircuit for sky130_fd_sc_hd__a41o_1 abstract view
.subckt sky130_fd_sc_hd__a41o_1 A1 A2 A3 A4 B1 VGND VNB VPB VPWR X
.ends

* Black-box entry subcircuit for sky130_fd_sc_hd__nand3b_2 abstract view
.subckt sky130_fd_sc_hd__nand3b_2 A_N B C VGND VNB VPB VPWR Y
.ends

* Black-box entry subcircuit for sky130_fd_sc_hd__or3b_2 abstract view
.subckt sky130_fd_sc_hd__or3b_2 A B C_N VGND VNB VPB VPWR X
.ends

* Black-box entry subcircuit for sky130_fd_sc_hd__and4_4 abstract view
.subckt sky130_fd_sc_hd__and4_4 A B C D VGND VNB VPB VPWR X
.ends

* Black-box entry subcircuit for sky130_fd_sc_hd__or4b_4 abstract view
.subckt sky130_fd_sc_hd__or4b_4 A B C D_N VGND VNB VPB VPWR X
.ends

* Black-box entry subcircuit for sky130_fd_sc_hd__or2b_2 abstract view
.subckt sky130_fd_sc_hd__or2b_2 A B_N VGND VNB VPB VPWR X
.ends

* Black-box entry subcircuit for sky130_fd_sc_hd__or3b_4 abstract view
.subckt sky130_fd_sc_hd__or3b_4 A B C_N VGND VNB VPB VPWR X
.ends

* Black-box entry subcircuit for sky130_fd_sc_hd__a31oi_1 abstract view
.subckt sky130_fd_sc_hd__a31oi_1 A1 A2 A3 B1 VGND VNB VPB VPWR Y
.ends

* Black-box entry subcircuit for sky130_fd_sc_hd__o221a_4 abstract view
.subckt sky130_fd_sc_hd__o221a_4 A1 A2 B1 B2 C1 VGND VNB VPB VPWR X
.ends

.subckt top VGND VPWR armed_led clk flow_pulse kill_n pwm_out[0] pwm_out[1] pwm_out[2]
+ pwm_out[3] pwm_out[4] pwm_out[5] pwm_out[6] pwm_out[7] rst_n spi_cs_n spi_miso spi_mosi
+ spi_sclk spray_pwm wdog_trip_led
XFILLER_0_236_1309 VGND VGND VPWR VPWR sky130_fd_sc_hd__decap_6
XFILLER_0_94_77 VGND VGND VPWR VPWR sky130_fd_sc_hd__decap_6
XFILLER_0_59_1231 VGND VGND VPWR VPWR sky130_fd_sc_hd__fill_1
XFILLER_0_241_529 VPWR VGND VPWR VGND sky130_ef_sc_hd__decap_12
XANTENNA__5530__S _1900_ VGND VGND VPWR VPWR sky130_fd_sc_hd__diode_2
XANTENNA__5417__A0 _1799_ VGND VGND VPWR VPWR sky130_fd_sc_hd__diode_2
XFILLER_0_234_581 VGND VGND VPWR VPWR sky130_fd_sc_hd__decap_6
XFILLER_0_171_1301 VPWR VGND VPWR VGND sky130_ef_sc_hd__decap_12
XFILLER_0_136_1421 VGND VGND VPWR VPWR sky130_fd_sc_hd__decap_6
XFILLER_0_175_1481 VPWR VGND VPWR VGND sky130_ef_sc_hd__decap_12
XFILLER_0_27_93 VPWR VGND VPWR VGND sky130_ef_sc_hd__decap_12
XFILLER_0_210_905 VPWR VGND VPWR VGND sky130_ef_sc_hd__decap_12
XFILLER_0_171_1345 VPWR VGND VPWR VGND sky130_ef_sc_hd__decap_12
XFILLER_0_136_1465 VPWR VGND VPWR VGND sky130_ef_sc_hd__decap_12
X_6914_ _3260_ _3261_ VGND VGND VPWR VPWR _3262_ sky130_fd_sc_hd__nand2_4
XFILLER_0_89_483 VGND VGND VPWR VPWR sky130_fd_sc_hd__fill_1
XFILLER_0_210_949 VPWR VGND VPWR VGND sky130_ef_sc_hd__decap_12
X_7894_ clknet_leaf_30_clk net252 net83 VGND VGND VPWR VPWR u_alt.alt_fused\[9\] sky130_fd_sc_hd__dfrtp_2
XFILLER_0_132_1329 VPWR VGND VPWR VGND sky130_ef_sc_hd__decap_12
XFILLER_0_72_1453 VPWR VGND VPWR VGND sky130_ef_sc_hd__decap_12
XFILLER_0_77_645 VGND VGND VPWR VPWR sky130_fd_sc_hd__fill_2
XFILLER_0_193_105 VGND VGND VPWR VPWR sky130_fd_sc_hd__decap_6
XFILLER_0_76_133 VGND VGND VPWR VPWR sky130_fd_sc_hd__decap_6
X_6845_ _2863_ _3190_ _3194_ VGND VGND VPWR VPWR _3195_ sky130_fd_sc_hd__o21a_1
XFILLER_0_134_83 VGND VGND VPWR VPWR sky130_fd_sc_hd__fill_1
XFILLER_0_33_1437 VPWR VGND VPWR VGND sky130_ef_sc_hd__decap_12
XFILLER_0_212_1353 VPWR VGND VPWR VGND sky130_ef_sc_hd__decap_12
XANTENNA__6917__B1 _1769_ VGND VGND VPWR VPWR sky130_fd_sc_hd__diode_2
XFILLER_0_130_1020 VGND VGND VPWR VPWR sky130_fd_sc_hd__fill_2
XFILLER_0_193_149 VPWR VGND VPWR VGND sky130_ef_sc_hd__decap_12
XFILLER_0_159_393 VPWR VGND VPWR VGND sky130_ef_sc_hd__decap_12
XFILLER_0_18_701 VPWR VGND VPWR VGND sky130_ef_sc_hd__decap_12
XFILLER_0_43_81 VPWR VGND VPWR VGND sky130_ef_sc_hd__decap_12
XTAP_TAPCELL_ROW_98_3125 VGND VPWR sky130_fd_sc_hd__tapvpwrvgnd_1
XFILLER_0_58_881 VPWR VGND VPWR VGND sky130_ef_sc_hd__decap_12
XFILLER_0_76_177 VPWR VGND VPWR VGND sky130_ef_sc_hd__decap_12
XTAP_TAPCELL_ROW_98_3136 VGND VPWR sky130_fd_sc_hd__tapvpwrvgnd_1
XTAP_TAPCELL_ROW_98_3147 VGND VPWR sky130_fd_sc_hd__tapvpwrvgnd_1
XFILLER_0_130_1053 VGND VGND VPWR VPWR sky130_fd_sc_hd__fill_2
XFILLER_0_212_1397 VPWR VGND VPWR VGND sky130_ef_sc_hd__decap_12
X_6776_ _3124_ _3126_ VGND VGND VPWR VPWR _3127_ sky130_fd_sc_hd__xnor2_1
XFILLER_0_91_125 VPWR VGND VPWR VGND sky130_ef_sc_hd__decap_12
XFILLER_0_107_408 VGND VGND VPWR VPWR sky130_fd_sc_hd__fill_2
XFILLER_0_174_363 VGND VGND VPWR VPWR sky130_fd_sc_hd__fill_1
XFILLER_0_57_391 VGND VGND VPWR VPWR sky130_fd_sc_hd__fill_1
X_3988_ _0779_ u_pwm.duty0\[1\] u_pwm.duty0\[2\] _0778_ _0780_ VGND VGND VPWR VPWR
+ _0781_ sky130_fd_sc_hd__o221a_1
XFILLER_0_175_897 VPWR VGND VPWR VGND sky130_ef_sc_hd__decap_12
XFILLER_0_162_525 VGND VGND VPWR VPWR sky130_fd_sc_hd__decap_6
X_5727_ _2035_ _2032_ _2036_ VGND VGND VPWR VPWR _2086_ sky130_fd_sc_hd__or3_1
XFILLER_0_45_553 VGND VGND VPWR VPWR sky130_fd_sc_hd__decap_6
XFILLER_0_247_1449 VGND VGND VPWR VPWR sky130_fd_sc_hd__decap_6
XFILLER_0_165_1116 VGND VGND VPWR VPWR sky130_fd_sc_hd__decap_4
XFILLER_0_91_169 VPWR VGND VPWR VGND sky130_ef_sc_hd__decap_12
XFILLER_0_190_867 VGND VGND VPWR VPWR sky130_fd_sc_hd__fill_1
XFILLER_0_73_895 VGND VGND VPWR VPWR sky130_fd_sc_hd__fill_1
XFILLER_0_162_569 VPWR VGND VPWR VGND sky130_ef_sc_hd__decap_12
XFILLER_0_45_597 VPWR VGND VPWR VGND sky130_ef_sc_hd__decap_12
X_5658_ _2012_ _2014_ _2016_ VGND VGND VPWR VPWR _2017_ sky130_fd_sc_hd__or3_1
XFILLER_0_182_1441 VPWR VGND VPWR VGND sky130_ef_sc_hd__decap_12
XFILLER_0_131_923 VGND VGND VPWR VPWR sky130_fd_sc_hd__fill_2
XFILLER_0_115_496 VGND VGND VPWR VPWR sky130_fd_sc_hd__decap_8
X_4609_ net846 VGND VGND VPWR VPWR _1321_ sky130_fd_sc_hd__inv_2
XANTENNA__6597__A u_alt.s2_err\[12\] VGND VGND VPWR VPWR sky130_fd_sc_hd__diode_2
XFILLER_0_143_1425 VPWR VGND VPWR VGND sky130_ef_sc_hd__decap_12
XFILLER_0_14_973 VGND VGND VPWR VPWR sky130_fd_sc_hd__decap_6
XFILLER_0_182_1485 VGND VGND VPWR VPWR sky130_fd_sc_hd__decap_8
X_5589_ _1921_ _1923_ VGND VGND VPWR VPWR _1948_ sky130_fd_sc_hd__nand2_1
XFILLER_0_60_589 VGND VGND VPWR VPWR sky130_fd_sc_hd__decap_3
XFILLER_0_130_444 VGND VGND VPWR VPWR sky130_fd_sc_hd__fill_1
XFILLER_0_13_461 VPWR VGND VPWR VGND sky130_ef_sc_hd__decap_12
XFILLER_0_103_658 VGND VGND VPWR VPWR sky130_fd_sc_hd__fill_2
XFILLER_0_103_669 VGND VGND VPWR VPWR sky130_fd_sc_hd__decap_3
XFILLER_0_104_1409 VPWR VGND VPWR VGND sky130_ef_sc_hd__decap_12
Xhold340 u_alt.sonar_ext\[13\] VGND VGND VPWR VPWR net433 sky130_fd_sc_hd__dlygate4sd3_1
X_7328_ net453 VGND VGND VPWR VPWR _3652_ sky130_fd_sc_hd__inv_2
XTAP_TAPCELL_ROW_221_6403 VGND VPWR sky130_fd_sc_hd__tapvpwrvgnd_1
XFILLER_0_143_1469 VPWR VGND VPWR VGND sky130_ef_sc_hd__decap_12
Xhold351 u_pwm.duty7\[14\] VGND VGND VPWR VPWR net444 sky130_fd_sc_hd__dlygate4sd3_1
Xhold362 _0523_ VGND VGND VPWR VPWR net455 sky130_fd_sc_hd__dlygate4sd3_1
XFILLER_0_130_477 VGND VGND VPWR VPWR sky130_fd_sc_hd__decap_4
XFILLER_0_7_81 VPWR VGND VPWR VGND sky130_ef_sc_hd__decap_12
XFILLER_0_229_39 VPWR VGND VPWR VGND sky130_ef_sc_hd__decap_12
XTAP_TAPCELL_ROW_74_2490 VGND VPWR sky130_fd_sc_hd__tapvpwrvgnd_1
Xhold373 _0132_ VGND VGND VPWR VPWR net466 sky130_fd_sc_hd__dlygate4sd3_1
Xhold384 u_alt.delta\[13\] VGND VGND VPWR VPWR net477 sky130_fd_sc_hd__dlygate4sd3_1
XANTENNA__3733__B u_pwm.period\[14\] VGND VGND VPWR VPWR sky130_fd_sc_hd__diode_2
XFILLER_0_223_1493 VGND VGND VPWR VPWR sky130_fd_sc_hd__fill_1
X_7259_ _3503_ _3505_ VGND VGND VPWR VPWR _3590_ sky130_fd_sc_hd__or2_1
Xhold395 _1730_ VGND VGND VPWR VPWR net488 sky130_fd_sc_hd__dlygate4sd3_1
XFILLER_0_244_301 VGND VGND VPWR VPWR sky130_fd_sc_hd__decap_6
XFILLER_0_99_1033 VPWR VGND VPWR VGND sky130_ef_sc_hd__decap_12
XTAP_TAPCELL_ROW_70_2387 VGND VPWR sky130_fd_sc_hd__tapvpwrvgnd_1
XFILLER_0_217_559 VGND VGND VPWR VPWR sky130_fd_sc_hd__fill_1
XANTENNA_hold374_A u_regs.spray_flow_count\[14\] VGND VGND VPWR VPWR sky130_fd_sc_hd__diode_2
XTAP_TAPCELL_ROW_70_2398 VGND VPWR sky130_fd_sc_hd__tapvpwrvgnd_1
XFILLER_0_99_1077 VPWR VGND VPWR VGND sky130_ef_sc_hd__decap_12
XFILLER_0_244_345 VPWR VGND VPWR VGND sky130_ef_sc_hd__decap_12
XFILLER_0_245_27 VPWR VGND VPWR VGND sky130_ef_sc_hd__decap_12
XFILLER_0_204_209 VPWR VGND VPWR VGND sky130_ef_sc_hd__decap_12
XTAP_TAPCELL_ROW_126_3866 VGND VPWR sky130_fd_sc_hd__tapvpwrvgnd_1
XTAP_TAPCELL_ROW_126_3877 VGND VPWR sky130_fd_sc_hd__tapvpwrvgnd_1
XFILLER_0_244_389 VPWR VGND VPWR VGND sky130_ef_sc_hd__decap_12
XTAP_TAPCELL_ROW_126_3888 VGND VPWR sky130_fd_sc_hd__tapvpwrvgnd_1
XTAP_TAPCELL_ROW_87_2840 VGND VPWR sky130_fd_sc_hd__tapvpwrvgnd_1
XFILLER_0_99_225 VPWR VGND VPWR VGND sky130_ef_sc_hd__decap_12
XTAP_TAPCELL_ROW_219_6332 VGND VPWR sky130_fd_sc_hd__tapvpwrvgnd_1
XFILLER_0_213_721 VGND VGND VPWR VPWR sky130_fd_sc_hd__decap_6
XANTENNA__5408__B1 _1797_ VGND VGND VPWR VPWR sky130_fd_sc_hd__diode_2
XTAP_TAPCELL_ROW_87_2851 VGND VPWR sky130_fd_sc_hd__tapvpwrvgnd_1
XTAP_TAPCELL_ROW_219_6343 VGND VPWR sky130_fd_sc_hd__tapvpwrvgnd_1
XFILLER_0_198_923 VGND VGND VPWR VPWR sky130_fd_sc_hd__fill_1
XFILLER_0_38_1315 VGND VGND VPWR VPWR sky130_fd_sc_hd__fill_1
XFILLER_0_217_1231 VGND VGND VPWR VPWR sky130_fd_sc_hd__fill_1
XFILLER_0_169_113 VPWR VGND VPWR VGND sky130_ef_sc_hd__decap_12
XFILLER_0_213_765 VPWR VGND VPWR VGND sky130_ef_sc_hd__decap_12
XTAP_TAPCELL_ROW_83_2726 VGND VPWR sky130_fd_sc_hd__tapvpwrvgnd_1
XTAP_TAPCELL_ROW_83_2737 VGND VPWR sky130_fd_sc_hd__tapvpwrvgnd_1
XTAP_TAPCELL_ROW_215_6229 VGND VPWR sky130_fd_sc_hd__tapvpwrvgnd_1
XFILLER_0_212_253 VPWR VGND VPWR VGND sky130_ef_sc_hd__decap_12
XTAP_TAPCELL_ROW_1_560 VGND VPWR sky130_fd_sc_hd__tapvpwrvgnd_1
XTAP_TAPCELL_ROW_83_2748 VGND VPWR sky130_fd_sc_hd__tapvpwrvgnd_1
XANTENNA__6620__A2 u_alt.alpha_ext\[6\] VGND VGND VPWR VPWR sky130_fd_sc_hd__diode_2
XTAP_TAPCELL_ROW_1_571 VGND VPWR sky130_fd_sc_hd__tapvpwrvgnd_1
XFILLER_0_185_617 VPWR VGND VPWR VGND sky130_ef_sc_hd__decap_12
XFILLER_0_67_111 VGND VGND VPWR VPWR sky130_fd_sc_hd__fill_1
XFILLER_0_150_1429 VPWR VGND VPWR VGND sky130_ef_sc_hd__decap_12
XFILLER_0_68_645 VGND VGND VPWR VPWR sky130_fd_sc_hd__fill_2
XFILLER_0_36_1061 VPWR VGND VPWR VGND sky130_ef_sc_hd__decap_12
XFILLER_0_138_522 VGND VGND VPWR VPWR sky130_fd_sc_hd__decap_8
XFILLER_0_230_1453 VPWR VGND VPWR VGND sky130_ef_sc_hd__decap_12
XFILLER_0_138_533 VGND VGND VPWR VPWR sky130_fd_sc_hd__fill_1
XFILLER_0_3_1313 VPWR VGND VPWR VGND sky130_ef_sc_hd__decap_12
XFILLER_0_55_317 VPWR VGND VPWR VGND sky130_ef_sc_hd__decap_12
XFILLER_0_7_1493 VGND VGND VPWR VPWR sky130_fd_sc_hd__fill_1
XFILLER_0_126_717 VGND VGND VPWR VPWR sky130_fd_sc_hd__decap_8
XANTENNA__6384__B2 _2107_ VGND VGND VPWR VPWR sky130_fd_sc_hd__diode_2
XFILLER_0_153_503 VGND VGND VPWR VPWR sky130_fd_sc_hd__fill_1
XFILLER_0_125_205 VPWR VGND VPWR VGND sky130_ef_sc_hd__decap_12
XFILLER_0_3_1357 VPWR VGND VPWR VGND sky130_ef_sc_hd__decap_12
XFILLER_0_36_531 VGND VGND VPWR VPWR sky130_fd_sc_hd__fill_1
XFILLER_0_165_385 VGND VGND VPWR VPWR sky130_fd_sc_hd__decap_6
XTAP_TAPCELL_ROW_12_846 VGND VPWR sky130_fd_sc_hd__tapvpwrvgnd_1
XFILLER_0_70_309 VPWR VGND VPWR VGND sky130_ef_sc_hd__decap_12
XFILLER_0_180_333 VPWR VGND VPWR VGND sky130_ef_sc_hd__decap_12
XTAP_TAPCELL_ROW_23_1143 VGND VPWR sky130_fd_sc_hd__tapvpwrvgnd_1
XTAP_TAPCELL_ROW_12_857 VGND VPWR sky130_fd_sc_hd__tapvpwrvgnd_1
XFILLER_0_125_249 VPWR VGND VPWR VGND sky130_ef_sc_hd__decap_12
XTAP_TAPCELL_ROW_23_1154 VGND VPWR sky130_fd_sc_hd__tapvpwrvgnd_1
XFILLER_0_63_361 VPWR VGND VPWR VGND sky130_ef_sc_hd__decap_12
XFILLER_0_107_953 VGND VGND VPWR VPWR sky130_fd_sc_hd__fill_2
XTAP_TAPCELL_ROW_12_868 VGND VPWR sky130_fd_sc_hd__tapvpwrvgnd_1
XFILLER_0_24_737 VPWR VGND VPWR VGND sky130_ef_sc_hd__decap_12