* NGSPICE file created from user_project_wrapper.ext - technology: sky130A

* Black-box entry subcircuit for sky130_fd_sc_hd__conb_1 abstract view
.subckt sky130_fd_sc_hd__conb_1 VGND VNB VPB VPWR HI LO
.ends

* Black-box entry subcircuit for sky130_fd_sc_hd__buf_4 abstract view
.subckt sky130_fd_sc_hd__buf_4 A VGND VNB VPB VPWR X
.ends

* Black-box entry subcircuit for sky130_fd_sc_hd__buf_12 abstract view
.subckt sky130_fd_sc_hd__buf_12 A VGND VNB VPB VPWR X
.ends

* Black-box entry subcircuit for sky130_fd_sc_hd__clkbuf_4 abstract view
.subckt sky130_fd_sc_hd__clkbuf_4 A VGND VNB VPB VPWR X
.ends

* Black-box entry subcircuit for sky130_fd_sc_hd__buf_6 abstract view
.subckt sky130_fd_sc_hd__buf_6 A VGND VNB VPB VPWR X
.ends

* Black-box entry subcircuit for sky130_fd_sc_hd__inv_2 abstract view
.subckt sky130_fd_sc_hd__inv_2 A VGND VNB VPB VPWR Y
.ends

* Black-box entry subcircuit for top abstract view
.subckt top VGND VPWR armed_led clk flow_pulse kill_n pwm_out[0] pwm_out[1] pwm_out[2]
+ pwm_out[3] pwm_out[4] pwm_out[5] pwm_out[6] pwm_out[7] rst_n spi_cs_n spi_miso spi_mosi
+ spi_sclk spray_pwm wdog_trip_led
.ends

.subckt user_project_wrapper analog_io[0] analog_io[10] analog_io[11] analog_io[12]
+ analog_io[13] analog_io[14] analog_io[15] analog_io[16] analog_io[17] analog_io[18]
+ analog_io[19] analog_io[1] analog_io[20] analog_io[21] analog_io[22] analog_io[23]
+ analog_io[24] analog_io[25] analog_io[26] analog_io[27] analog_io[28] analog_io[2]
+ analog_io[3] analog_io[4] analog_io[5] analog_io[6] analog_io[7] analog_io[8] analog_io[9]
+ io_in[0] io_in[10] io_in[11] io_in[12] io_in[13] io_in[14] io_in[15] io_in[16] io_in[17]
+ io_in[18] io_in[19] io_in[1] io_in[20] io_in[21] io_in[22] io_in[23] io_in[24] io_in[25]
+ io_in[26] io_in[27] io_in[28] io_in[29] io_in[2] io_in[30] io_in[31] io_in[32] io_in[33]
+ io_in[34] io_in[35] io_in[36] io_in[37] io_in[3] io_in[4] io_in[5] io_in[6] io_in[7]
+ io_in[8] io_in[9] io_oeb[0] io_oeb[10] io_oeb[11] io_oeb[12] io_oeb[13] io_oeb[14]
+ io_oeb[15] io_oeb[16] io_oeb[17] io_oeb[18] io_oeb[19] io_oeb[1] io_oeb[20] io_oeb[21]
+ io_oeb[22] io_oeb[23] io_oeb[24] io_oeb[25] io_oeb[26] io_oeb[27] io_oeb[28] io_oeb[29]
+ io_oeb[2] io_oeb[30] io_oeb[31] io_oeb[32] io_oeb[33] io_oeb[34] io_oeb[35] io_oeb[36]
+ io_oeb[37] io_oeb[3] io_oeb[4] io_oeb[5] io_oeb[6] io_oeb[7] io_oeb[8] io_oeb[9]
+ io_out[0] io_out[10] io_out[11] io_out[12] io_out[13] io_out[14] io_out[15] io_out[16]
+ io_out[17] io_out[18] io_out[19] io_out[1] io_out[20] io_out[21] io_out[22] io_out[23]
+ io_out[24] io_out[25] io_out[26] io_out[27] io_out[28] io_out[29] io_out[2] io_out[30]
+ io_out[31] io_out[32] io_out[33] io_out[34] io_out[35] io_out[36] io_out[37] io_out[3]
+ io_out[4] io_out[5] io_out[6] io_out[7] io_out[8] io_out[9] la_data_in[0] la_data_in[100]
+ la_data_in[101] la_data_in[102] la_data_in[103] la_data_in[104] la_data_in[105]
+ la_data_in[106] la_data_in[107] la_data_in[108] la_data_in[109] la_data_in[10] la_data_in[110]
+ la_data_in[111] la_data_in[112] la_data_in[113] la_data_in[114] la_data_in[115]
+ la_data_in[116] la_data_in[117] la_data_in[118] la_data_in[119] la_data_in[11] la_data_in[120]
+ la_data_in[121] la_data_in[122] la_data_in[123] la_data_in[124] la_data_in[125]
+ la_data_in[126] la_data_in[127] la_data_in[12] la_data_in[13] la_data_in[14] la_data_in[15]
+ la_data_in[16] la_data_in[17] la_data_in[18] la_data_in[19] la_data_in[1] la_data_in[20]
+ la_data_in[21] la_data_in[22] la_data_in[23] la_data_in[24] la_data_in[25] la_data_in[26]
+ la_data_in[27] la_data_in[28] la_data_in[29] la_data_in[2] la_data_in[30] la_data_in[31]
+ la_data_in[32] la_data_in[33] la_data_in[34] la_data_in[35] la_data_in[36] la_data_in[37]
+ la_data_in[38] la_data_in[39] la_data_in[3] la_data_in[40] la_data_in[41] la_data_in[42]
+ la_data_in[43] la_data_in[44] la_data_in[45] la_data_in[46] la_data_in[47] la_data_in[48]
+ la_data_in[49] la_data_in[4] la_data_in[50] la_data_in[51] la_data_in[52] la_data_in[53]
+ la_data_in[54] la_data_in[55] la_data_in[56] la_data_in[57] la_data_in[58] la_data_in[59]
+ la_data_in[5] la_data_in[60] la_data_in[61] la_data_in[62] la_data_in[63] la_data_in[64]
+ la_data_in[65] la_data_in[66] la_data_in[67] la_data_in[68] la_data_in[69] la_data_in[6]
+ la_data_in[70] la_data_in[71] la_data_in[72] la_data_in[73] la_data_in[74] la_data_in[75]
+ la_data_in[76] la_data_in[77] la_data_in[78] la_data_in[79] la_data_in[7] la_data_in[80]
+ la_data_in[81] la_data_in[82] la_data_in[83] la_data_in[84] la_data_in[85] la_data_in[86]
+ la_data_in[87] la_data_in[88] la_data_in[89] la_data_in[8] la_data_in[90] la_data_in[91]
+ la_data_in[92] la_data_in[93] la_data_in[94] la_data_in[95] la_data_in[96] la_data_in[97]
+ la_data_in[98] la_data_in[99] la_data_in[9] la_data_out[0] la_data_out[100] la_data_out[101]
+ la_data_out[102] la_data_out[103] la_data_out[104] la_data_out[105] la_data_out[106]
+ la_data_out[107] la_data_out[108] la_data_out[109] la_data_out[10] la_data_out[110]
+ la_data_out[111] la_data_out[112] la_data_out[113] la_data_out[114] la_data_out[115]
+ la_data_out[116] la_data_out[117] la_data_out[118] la_data_out[119] la_data_out[11]
+ la_data_out[120] la_data_out[121] la_data_out[122] la_data_out[123] la_data_out[124]
+ la_data_out[125] la_data_out[126] la_data_out[127] la_data_out[12] la_data_out[13]
+ la_data_out[14] la_data_out[15] la_data_out[16] la_data_out[17] la_data_out[18]
+ la_data_out[19] la_data_out[1] la_data_out[20] la_data_out[21] la_data_out[22] la_data_out[23]
+ la_data_out[24] la_data_out[25] la_data_out[26] la_data_out[27] la_data_out[28]
+ la_data_out[29] la_data_out[2] la_data_out[30] la_data_out[31] la_data_out[32] la_data_out[33]
+ la_data_out[34] la_data_out[35] la_data_out[36] la_data_out[37] la_data_out[38]
+ la_data_out[39] la_data_out[3] la_data_out[40] la_data_out[41] la_data_out[42] la_data_out[43]
+ la_data_out[44] la_data_out[45] la_data_out[46] la_data_out[47] la_data_out[48]
+ la_data_out[49] la_data_out[4] la_data_out[50] la_data_out[51] la_data_out[52] la_data_out[53]
+ la_data_out[54] la_data_out[55] la_data_out[56] la_data_out[57] la_data_out[58]
+ la_data_out[59] la_data_out[5] la_data_out[60] la_data_out[61] la_data_out[62] la_data_out[63]
+ la_data_out[64] la_data_out[65] la_data_out[66] la_data_out[67] la_data_out[68]
+ la_data_out[69] la_data_out[6] la_data_out[70] la_data_out[71] la_data_out[72] la_data_out[73]
+ la_data_out[74] la_data_out[75] la_data_out[76] la_data_out[77] la_data_out[78]
+ la_data_out[79] la_data_out[7] la_data_out[80] la_data_out[81] la_data_out[82] la_data_out[83]
+ la_data_out[84] la_data_out[85] la_data_out[86] la_data_out[87] la_data_out[88]
+ la_data_out[89] la_data_out[8] la_data_out[90] la_data_out[91] la_data_out[92] la_data_out[93]
+ la_data_out[94] la_data_out[95] la_data_out[96] la_data_out[97] la_data_out[98]
+ la_data_out[99] la_data_out[9] la_oenb[0] la_oenb[100] la_oenb[101] la_oenb[102]
+ la_oenb[103] la_oenb[104] la_oenb[105] la_oenb[106] la_oenb[107] la_oenb[108] la_oenb[109]
+ la_oenb[10] la_oenb[110] la_oenb[111] la_oenb[112] la_oenb[113] la_oenb[114] la_oenb[115]
+ la_oenb[116] la_oenb[117] la_oenb[118] la_oenb[119] la_oenb[11] la_oenb[120] la_oenb[121]
+ la_oenb[122] la_oenb[123] la_oenb[124] la_oenb[125] la_oenb[126] la_oenb[127] la_oenb[12]
+ la_oenb[13] la_oenb[14] la_oenb[15] la_oenb[16] la_oenb[17] la_oenb[18] la_oenb[19]
+ la_oenb[1] la_oenb[20] la_oenb[21] la_oenb[22] la_oenb[23] la_oenb[24] la_oenb[25]
+ la_oenb[26] la_oenb[27] la_oenb[28] la_oenb[29] la_oenb[2] la_oenb[30] la_oenb[31]
+ la_oenb[32] la_oenb[33] la_oenb[34] la_oenb[35] la_oenb[36] la_oenb[37] la_oenb[38]
+ la_oenb[39] la_oenb[3] la_oenb[40] la_oenb[41] la_oenb[42] la_oenb[43] la_oenb[44]
+ la_oenb[45] la_oenb[46] la_oenb[47] la_oenb[48] la_oenb[49] la_oenb[4] la_oenb[50]
+ la_oenb[51] la_oenb[52] la_oenb[53] la_oenb[54] la_oenb[55] la_oenb[56] la_oenb[57]
+ la_oenb[58] la_oenb[59] la_oenb[5] la_oenb[60] la_oenb[61] la_oenb[62] la_oenb[63]
+ la_oenb[64] la_oenb[65] la_oenb[66] la_oenb[67] la_oenb[68] la_oenb[69] la_oenb[6]
+ la_oenb[70] la_oenb[71] la_oenb[72] la_oenb[73] la_oenb[74] la_oenb[75] la_oenb[76]
+ la_oenb[77] la_oenb[78] la_oenb[79] la_oenb[7] la_oenb[80] la_oenb[81] la_oenb[82]
+ la_oenb[83] la_oenb[84] la_oenb[85] la_oenb[86] la_oenb[87] la_oenb[88] la_oenb[89]
+ la_oenb[8] la_oenb[90] la_oenb[91] la_oenb[92] la_oenb[93] la_oenb[94] la_oenb[95]
+ la_oenb[96] la_oenb[97] la_oenb[98] la_oenb[99] la_oenb[9] user_clock2 user_irq[0]
+ user_irq[1] user_irq[2] vccd1 vccd2 vdda1 vdda2 vssa1 vssa2 vssd1 vssd2 wb_clk_i
+ wb_rst_i wbs_ack_o wbs_adr_i[0] wbs_adr_i[10] wbs_adr_i[11] wbs_adr_i[12] wbs_adr_i[13]
+ wbs_adr_i[14] wbs_adr_i[15] wbs_adr_i[16] wbs_adr_i[17] wbs_adr_i[18] wbs_adr_i[19]
+ wbs_adr_i[1] wbs_adr_i[20] wbs_adr_i[21] wbs_adr_i[22] wbs_adr_i[23] wbs_adr_i[24]
+ wbs_adr_i[25] wbs_adr_i[26] wbs_adr_i[27] wbs_adr_i[28] wbs_adr_i[29] wbs_adr_i[2]
+ wbs_adr_i[30] wbs_adr_i[31] wbs_adr_i[3] wbs_adr_i[4] wbs_adr_i[5] wbs_adr_i[6]
+ wbs_adr_i[7] wbs_adr_i[8] wbs_adr_i[9] wbs_cyc_i wbs_dat_i[0] wbs_dat_i[10] wbs_dat_i[11]
+ wbs_dat_i[12] wbs_dat_i[13] wbs_dat_i[14] wbs_dat_i[15] wbs_dat_i[16] wbs_dat_i[17]
+ wbs_dat_i[18] wbs_dat_i[19] wbs_dat_i[1] wbs_dat_i[20] wbs_dat_i[21] wbs_dat_i[22]
+ wbs_dat_i[23] wbs_dat_i[24] wbs_dat_i[25] wbs_dat_i[26] wbs_dat_i[27] wbs_dat_i[28]
+ wbs_dat_i[29] wbs_dat_i[2] wbs_dat_i[30] wbs_dat_i[31] wbs_dat_i[3] wbs_dat_i[4]
+ wbs_dat_i[5] wbs_dat_i[6] wbs_dat_i[7] wbs_dat_i[8] wbs_dat_i[9] wbs_dat_o[0] wbs_dat_o[10]
+ wbs_dat_o[11] wbs_dat_o[12] wbs_dat_o[13] wbs_dat_o[14] wbs_dat_o[15] wbs_dat_o[16]
+ wbs_dat_o[17] wbs_dat_o[18] wbs_dat_o[19] wbs_dat_o[1] wbs_dat_o[20] wbs_dat_o[21]
+ wbs_dat_o[22] wbs_dat_o[23] wbs_dat_o[24] wbs_dat_o[25] wbs_dat_o[26] wbs_dat_o[27]
+ wbs_dat_o[28] wbs_dat_o[29] wbs_dat_o[2] wbs_dat_o[30] wbs_dat_o[31] wbs_dat_o[3]
+ wbs_dat_o[4] wbs_dat_o[5] wbs_dat_o[6] wbs_dat_o[7] wbs_dat_o[8] wbs_dat_o[9] wbs_sel_i[0]
+ wbs_sel_i[1] wbs_sel_i[2] wbs_sel_i[3] wbs_stb_i wbs_we_i
Xuser_project_wrapper_92 user_project_wrapper_92/VGND VSUBS user_project_wrapper_92/VPB
+ user_project_wrapper_92/VPWR user_project_wrapper_92/HI la_data_out[107] sky130_fd_sc_hd__conb_1
Xuser_project_wrapper_81 user_project_wrapper_81/VGND VSUBS user_project_wrapper_81/VPB
+ user_project_wrapper_81/VPWR user_project_wrapper_81/HI io_out[7] sky130_fd_sc_hd__conb_1
Xuser_project_wrapper_70 user_project_wrapper_70/VGND VSUBS user_project_wrapper_70/VPB
+ user_project_wrapper_70/VPWR user_project_wrapper_70/HI io_out[31] sky130_fd_sc_hd__conb_1
Xoutput20 output28/A output20/VGND VSUBS output20/VPB output20/VPWR io_oeb[15] sky130_fd_sc_hd__buf_4
Xoutput7 output7/A output7/VGND VSUBS output7/VPB output7/VPWR io_out[16] sky130_fd_sc_hd__buf_4
Xuser_project_wrapper_108 user_project_wrapper_108/VGND VSUBS user_project_wrapper_108/VPB
+ user_project_wrapper_108/VPWR user_project_wrapper_108/HI la_data_out[121] sky130_fd_sc_hd__conb_1
Xoutput42 output44/A output42/VGND VSUBS output42/VPB output42/VPWR io_oeb[35] sky130_fd_sc_hd__buf_4
Xoutput31 output51/A output31/VGND VSUBS output31/VPB output31/VPWR io_oeb[25] sky130_fd_sc_hd__buf_4
Xuser_project_wrapper_119 user_project_wrapper_119/VGND VSUBS user_project_wrapper_119/VPB
+ user_project_wrapper_119/VPWR user_project_wrapper_119/HI la_data_out[16] sky130_fd_sc_hd__conb_1
Xoutput21 output28/A output21/VGND VSUBS output21/VPB output21/VPWR io_oeb[16] sky130_fd_sc_hd__buf_4
Xoutput10 output10/A output10/VGND VSUBS output10/VPB output10/VPWR io_out[19] sky130_fd_sc_hd__buf_4
Xoutput8 output8/A output8/VGND VSUBS output8/VPB output8/VPWR io_out[17] sky130_fd_sc_hd__buf_4
Xuser_project_wrapper_109 user_project_wrapper_109/VGND VSUBS user_project_wrapper_109/VPB
+ user_project_wrapper_109/VPWR user_project_wrapper_109/HI la_data_out[122] sky130_fd_sc_hd__conb_1
Xuser_project_wrapper_93 user_project_wrapper_93/VGND VSUBS user_project_wrapper_93/VPB
+ user_project_wrapper_93/VPWR user_project_wrapper_93/HI la_data_out[108] sky130_fd_sc_hd__conb_1
Xoutput43 output44/A output43/VGND VSUBS output43/VPB output43/VPWR io_oeb[36] sky130_fd_sc_hd__buf_4
Xuser_project_wrapper_82 user_project_wrapper_82/VGND VSUBS user_project_wrapper_82/VPB
+ user_project_wrapper_82/VPWR user_project_wrapper_82/HI io_out[8] sky130_fd_sc_hd__conb_1
Xuser_project_wrapper_60 user_project_wrapper_60/VGND VSUBS user_project_wrapper_60/VPB
+ user_project_wrapper_60/VPWR user_project_wrapper_60/HI io_out[11] sky130_fd_sc_hd__conb_1
Xuser_project_wrapper_71 user_project_wrapper_71/VGND VSUBS user_project_wrapper_71/VPB
+ user_project_wrapper_71/VPWR user_project_wrapper_71/HI io_out[32] sky130_fd_sc_hd__conb_1
Xoutput32 output51/A output32/VGND VSUBS output32/VPB output32/VPWR io_oeb[26] sky130_fd_sc_hd__buf_4
Xoutput22 output28/A output22/VGND VSUBS output22/VPB output22/VPWR io_oeb[17] sky130_fd_sc_hd__buf_4
Xoutput11 output11/A output11/VGND VSUBS output11/VPB output11/VPWR io_out[22] sky130_fd_sc_hd__buf_4
Xoutput9 output9/A output9/VGND VSUBS output9/VPB output9/VPWR io_out[18] sky130_fd_sc_hd__buf_4
Xuser_project_wrapper_94 user_project_wrapper_94/VGND VSUBS user_project_wrapper_94/VPB
+ user_project_wrapper_94/VPWR user_project_wrapper_94/HI la_data_out[109] sky130_fd_sc_hd__conb_1
Xoutput44 output44/A output44/VGND VSUBS output44/VPB output44/VPWR io_oeb[37] sky130_fd_sc_hd__buf_4
Xoutput33 output41/A output33/VGND VSUBS output33/VPB output33/VPWR io_oeb[27] sky130_fd_sc_hd__buf_4
Xuser_project_wrapper_61 user_project_wrapper_61/VGND VSUBS user_project_wrapper_61/VPB
+ user_project_wrapper_61/VPWR user_project_wrapper_61/HI io_out[1] sky130_fd_sc_hd__conb_1
Xuser_project_wrapper_83 user_project_wrapper_83/VGND VSUBS user_project_wrapper_83/VPB
+ user_project_wrapper_83/VPWR user_project_wrapper_83/HI io_out[9] sky130_fd_sc_hd__conb_1
Xuser_project_wrapper_72 user_project_wrapper_72/VGND VSUBS user_project_wrapper_72/VPB
+ user_project_wrapper_72/VPWR user_project_wrapper_72/HI io_out[33] sky130_fd_sc_hd__conb_1
Xoutput23 output28/A output23/VGND VSUBS output23/VPB output23/VPWR io_oeb[18] sky130_fd_sc_hd__buf_4
Xuser_project_wrapper_62 user_project_wrapper_62/VGND VSUBS user_project_wrapper_62/VPB
+ user_project_wrapper_62/VPWR user_project_wrapper_62/HI io_out[21] sky130_fd_sc_hd__conb_1
Xoutput34 output41/A output34/VGND VSUBS output34/VPB output34/VPWR io_oeb[28] sky130_fd_sc_hd__buf_4
Xoutput12 output12/A output12/VGND VSUBS output12/VPB output12/VPWR io_out[10] sky130_fd_sc_hd__buf_4
Xoutput45 output45/A output45/VGND VSUBS output45/VPB output45/VPWR io_oeb[3] sky130_fd_sc_hd__buf_4
Xuser_project_wrapper_73 user_project_wrapper_73/VGND VSUBS user_project_wrapper_73/VPB
+ user_project_wrapper_73/VPWR user_project_wrapper_73/HI io_out[34] sky130_fd_sc_hd__conb_1
Xuser_project_wrapper_84 user_project_wrapper_84/VGND VSUBS user_project_wrapper_84/VPB
+ user_project_wrapper_84/VPWR user_project_wrapper_84/HI la_data_out[0] sky130_fd_sc_hd__conb_1
Xuser_project_wrapper_95 user_project_wrapper_95/VGND VSUBS user_project_wrapper_95/VPB
+ user_project_wrapper_95/VPWR user_project_wrapper_95/HI la_data_out[10] sky130_fd_sc_hd__conb_1
Xoutput24 output28/A output24/VGND VSUBS output24/VPB output24/VPWR io_oeb[19] sky130_fd_sc_hd__buf_4
Xoutput13 output13/A output13/VGND VSUBS output13/VPB output13/VPWR io_out[20] sky130_fd_sc_hd__buf_4
Xuser_project_wrapper_96 user_project_wrapper_96/VGND VSUBS user_project_wrapper_96/VPB
+ user_project_wrapper_96/VPWR user_project_wrapper_96/HI la_data_out[110] sky130_fd_sc_hd__conb_1
Xuser_project_wrapper_85 user_project_wrapper_85/VGND VSUBS user_project_wrapper_85/VPB
+ user_project_wrapper_85/VPWR user_project_wrapper_85/HI la_data_out[100] sky130_fd_sc_hd__conb_1
Xoutput35 output41/A output35/VGND VSUBS output35/VPB output35/VPWR io_oeb[29] sky130_fd_sc_hd__buf_4
Xoutput46 output51/A output46/VGND VSUBS output46/VPB output46/VPWR io_oeb[4] sky130_fd_sc_hd__buf_4
Xuser_project_wrapper_63 user_project_wrapper_63/VGND VSUBS user_project_wrapper_63/VPB
+ user_project_wrapper_63/VPWR user_project_wrapper_63/HI io_out[25] sky130_fd_sc_hd__conb_1
Xuser_project_wrapper_74 user_project_wrapper_74/VGND VSUBS user_project_wrapper_74/VPB
+ user_project_wrapper_74/VPWR user_project_wrapper_74/HI io_out[35] sky130_fd_sc_hd__conb_1
Xuser_project_wrapper_240 user_project_wrapper_240/VGND VSUBS user_project_wrapper_240/VPB
+ user_project_wrapper_240/VPWR user_project_wrapper_240/HI wbs_dat_o[31] sky130_fd_sc_hd__conb_1
Xuser_project_wrapper_97 user_project_wrapper_97/VGND VSUBS user_project_wrapper_97/VPB
+ user_project_wrapper_97/VPWR user_project_wrapper_97/HI la_data_out[111] sky130_fd_sc_hd__conb_1
Xuser_project_wrapper_86 user_project_wrapper_86/VGND VSUBS user_project_wrapper_86/VPB
+ user_project_wrapper_86/VPWR user_project_wrapper_86/HI la_data_out[101] sky130_fd_sc_hd__conb_1
Xuser_project_wrapper_64 user_project_wrapper_64/VGND VSUBS user_project_wrapper_64/VPB
+ user_project_wrapper_64/VPWR user_project_wrapper_64/HI io_out[26] sky130_fd_sc_hd__conb_1
Xuser_project_wrapper_75 user_project_wrapper_75/VGND VSUBS user_project_wrapper_75/VPB
+ user_project_wrapper_75/VPWR user_project_wrapper_75/HI io_out[36] sky130_fd_sc_hd__conb_1
Xoutput14 output45/A output14/VGND VSUBS output14/VPB output14/VPWR io_oeb[0] sky130_fd_sc_hd__buf_4
Xoutput36 output45/A output36/VGND VSUBS output36/VPB output36/VPWR io_oeb[2] sky130_fd_sc_hd__buf_4
Xoutput25 output45/A output25/VGND VSUBS output25/VPB output25/VPWR io_oeb[1] sky130_fd_sc_hd__buf_4
Xoutput47 output51/A output47/VGND VSUBS output47/VPB output47/VPWR io_oeb[5] sky130_fd_sc_hd__buf_4
Xuser_project_wrapper_241 user_project_wrapper_241/VGND VSUBS user_project_wrapper_241/VPB
+ user_project_wrapper_241/VPWR user_project_wrapper_241/HI wbs_dat_o[3] sky130_fd_sc_hd__conb_1
Xuser_project_wrapper_230 user_project_wrapper_230/VGND VSUBS user_project_wrapper_230/VPB
+ user_project_wrapper_230/VPWR user_project_wrapper_230/HI wbs_dat_o[22] sky130_fd_sc_hd__conb_1
Xoutput26 output28/A output26/VGND VSUBS output26/VPB output26/VPWR io_oeb[20] sky130_fd_sc_hd__buf_4
Xuser_project_wrapper_98 user_project_wrapper_98/VGND VSUBS user_project_wrapper_98/VPB
+ user_project_wrapper_98/VPWR user_project_wrapper_98/HI la_data_out[112] sky130_fd_sc_hd__conb_1
Xuser_project_wrapper_87 user_project_wrapper_87/VGND VSUBS user_project_wrapper_87/VPB
+ user_project_wrapper_87/VPWR user_project_wrapper_87/HI la_data_out[102] sky130_fd_sc_hd__conb_1
Xoutput37 output41/A output37/VGND VSUBS output37/VPB output37/VPWR io_oeb[30] sky130_fd_sc_hd__buf_4
Xoutput15 output51/A output15/VGND VSUBS output15/VPB output15/VPWR io_oeb[10] sky130_fd_sc_hd__buf_4
Xoutput48 output51/A output48/VGND VSUBS output48/VPB output48/VPWR io_oeb[6] sky130_fd_sc_hd__buf_4
Xuser_project_wrapper_65 user_project_wrapper_65/VGND VSUBS user_project_wrapper_65/VPB
+ user_project_wrapper_65/VPWR user_project_wrapper_65/HI io_out[27] sky130_fd_sc_hd__conb_1
Xuser_project_wrapper_76 user_project_wrapper_76/VGND VSUBS user_project_wrapper_76/VPB
+ user_project_wrapper_76/VPWR user_project_wrapper_76/HI io_out[37] sky130_fd_sc_hd__conb_1
Xuser_project_wrapper_242 user_project_wrapper_242/VGND VSUBS user_project_wrapper_242/VPB
+ user_project_wrapper_242/VPWR user_project_wrapper_242/HI wbs_dat_o[4] sky130_fd_sc_hd__conb_1
Xuser_project_wrapper_220 user_project_wrapper_220/VGND VSUBS user_project_wrapper_220/VPB
+ user_project_wrapper_220/VPWR user_project_wrapper_220/HI wbs_dat_o[13] sky130_fd_sc_hd__conb_1
Xuser_project_wrapper_231 user_project_wrapper_231/VGND VSUBS user_project_wrapper_231/VPB
+ user_project_wrapper_231/VPWR user_project_wrapper_231/HI wbs_dat_o[23] sky130_fd_sc_hd__conb_1
Xuser_project_wrapper_99 user_project_wrapper_99/VGND VSUBS user_project_wrapper_99/VPB
+ user_project_wrapper_99/VPWR user_project_wrapper_99/HI la_data_out[113] sky130_fd_sc_hd__conb_1
Xuser_project_wrapper_88 user_project_wrapper_88/VGND VSUBS user_project_wrapper_88/VPB
+ user_project_wrapper_88/VPWR user_project_wrapper_88/HI la_data_out[103] sky130_fd_sc_hd__conb_1
Xuser_project_wrapper_77 user_project_wrapper_77/VGND VSUBS user_project_wrapper_77/VPB
+ user_project_wrapper_77/VPWR user_project_wrapper_77/HI io_out[3] sky130_fd_sc_hd__conb_1
Xuser_project_wrapper_66 user_project_wrapper_66/VGND VSUBS user_project_wrapper_66/VPB
+ user_project_wrapper_66/VPWR user_project_wrapper_66/HI io_out[28] sky130_fd_sc_hd__conb_1
Xoutput27 output28/A output27/VGND VSUBS output27/VPB output27/VPWR io_oeb[21] sky130_fd_sc_hd__buf_4
Xoutput38 output41/A output38/VGND VSUBS output38/VPB output38/VPWR io_oeb[31] sky130_fd_sc_hd__buf_4
Xoutput16 output51/A output16/VGND VSUBS output16/VPB output16/VPWR io_oeb[11] sky130_fd_sc_hd__buf_4
Xoutput49 output51/A output49/VGND VSUBS output49/VPB output49/VPWR io_oeb[7] sky130_fd_sc_hd__buf_4
Xuser_project_wrapper_210 user_project_wrapper_210/VGND VSUBS user_project_wrapper_210/VPB
+ user_project_wrapper_210/VPWR user_project_wrapper_210/HI la_data_out[99] sky130_fd_sc_hd__conb_1
Xuser_project_wrapper_243 user_project_wrapper_243/VGND VSUBS user_project_wrapper_243/VPB
+ user_project_wrapper_243/VPWR user_project_wrapper_243/HI wbs_dat_o[5] sky130_fd_sc_hd__conb_1
Xuser_project_wrapper_221 user_project_wrapper_221/VGND VSUBS user_project_wrapper_221/VPB
+ user_project_wrapper_221/VPWR user_project_wrapper_221/HI wbs_dat_o[14] sky130_fd_sc_hd__conb_1
Xuser_project_wrapper_232 user_project_wrapper_232/VGND VSUBS user_project_wrapper_232/VPB
+ user_project_wrapper_232/VPWR user_project_wrapper_232/HI wbs_dat_o[24] sky130_fd_sc_hd__conb_1
Xoutput28 output28/A output28/VGND VSUBS output28/VPB output28/VPWR io_oeb[22] sky130_fd_sc_hd__buf_4
Xoutput17 wire58/X output17/VGND VSUBS output17/VPB output17/VPWR io_oeb[12] sky130_fd_sc_hd__buf_4
Xuser_project_wrapper_89 user_project_wrapper_89/VGND VSUBS user_project_wrapper_89/VPB
+ user_project_wrapper_89/VPWR user_project_wrapper_89/HI la_data_out[104] sky130_fd_sc_hd__conb_1
Xoutput39 output41/A output39/VGND VSUBS output39/VPB output39/VPWR io_oeb[32] sky130_fd_sc_hd__buf_4
Xuser_project_wrapper_78 user_project_wrapper_78/VGND VSUBS user_project_wrapper_78/VPB
+ user_project_wrapper_78/VPWR user_project_wrapper_78/HI io_out[4] sky130_fd_sc_hd__conb_1
Xuser_project_wrapper_67 user_project_wrapper_67/VGND VSUBS user_project_wrapper_67/VPB
+ user_project_wrapper_67/VPWR user_project_wrapper_67/HI io_out[29] sky130_fd_sc_hd__conb_1
Xuser_project_wrapper_244 user_project_wrapper_244/VGND VSUBS user_project_wrapper_244/VPB
+ user_project_wrapper_244/VPWR user_project_wrapper_244/HI wbs_dat_o[6] sky130_fd_sc_hd__conb_1
Xuser_project_wrapper_222 user_project_wrapper_222/VGND VSUBS user_project_wrapper_222/VPB
+ user_project_wrapper_222/VPWR user_project_wrapper_222/HI wbs_dat_o[15] sky130_fd_sc_hd__conb_1
Xuser_project_wrapper_233 user_project_wrapper_233/VGND VSUBS user_project_wrapper_233/VPB
+ user_project_wrapper_233/VPWR user_project_wrapper_233/HI wbs_dat_o[25] sky130_fd_sc_hd__conb_1
Xuser_project_wrapper_200 user_project_wrapper_200/VGND VSUBS user_project_wrapper_200/VPB
+ user_project_wrapper_200/VPWR user_project_wrapper_200/HI la_data_out[8] sky130_fd_sc_hd__conb_1
Xuser_project_wrapper_211 user_project_wrapper_211/VGND VSUBS user_project_wrapper_211/VPB
+ user_project_wrapper_211/VPWR user_project_wrapper_211/HI la_data_out[9] sky130_fd_sc_hd__conb_1
Xuser_project_wrapper_68 user_project_wrapper_68/VGND VSUBS user_project_wrapper_68/VPB
+ user_project_wrapper_68/VPWR user_project_wrapper_68/HI io_out[2] sky130_fd_sc_hd__conb_1
Xuser_project_wrapper_79 user_project_wrapper_79/VGND VSUBS user_project_wrapper_79/VPB
+ user_project_wrapper_79/VPWR user_project_wrapper_79/HI io_out[5] sky130_fd_sc_hd__conb_1
Xoutput29 output44/A output29/VGND VSUBS output29/VPB output29/VPWR io_oeb[23] sky130_fd_sc_hd__buf_4
Xoutput18 output28/A output18/VGND VSUBS output18/VPB output18/VPWR io_oeb[13] sky130_fd_sc_hd__buf_4
Xuser_project_wrapper_201 user_project_wrapper_201/VGND VSUBS user_project_wrapper_201/VPB
+ user_project_wrapper_201/VPWR user_project_wrapper_201/HI la_data_out[90] sky130_fd_sc_hd__conb_1
Xuser_project_wrapper_245 user_project_wrapper_245/VGND VSUBS user_project_wrapper_245/VPB
+ user_project_wrapper_245/VPWR user_project_wrapper_245/HI wbs_dat_o[7] sky130_fd_sc_hd__conb_1
Xuser_project_wrapper_223 user_project_wrapper_223/VGND VSUBS user_project_wrapper_223/VPB
+ user_project_wrapper_223/VPWR user_project_wrapper_223/HI wbs_dat_o[16] sky130_fd_sc_hd__conb_1
Xuser_project_wrapper_212 user_project_wrapper_212/VGND VSUBS user_project_wrapper_212/VPB
+ user_project_wrapper_212/VPWR user_project_wrapper_212/HI user_irq[0] sky130_fd_sc_hd__conb_1
Xuser_project_wrapper_234 user_project_wrapper_234/VGND VSUBS user_project_wrapper_234/VPB
+ user_project_wrapper_234/VPWR user_project_wrapper_234/HI wbs_dat_o[26] sky130_fd_sc_hd__conb_1
Xfanout53 output45/A fanout53/VGND VSUBS output46/VPB output46/VPWR output51/A sky130_fd_sc_hd__buf_12
Xoutput19 output28/A output19/VGND VSUBS output19/VPB output19/VPWR io_oeb[14] sky130_fd_sc_hd__buf_4
Xuser_project_wrapper_69 user_project_wrapper_69/VGND VSUBS user_project_wrapper_69/VPB
+ user_project_wrapper_69/VPWR user_project_wrapper_69/HI io_out[30] sky130_fd_sc_hd__conb_1
Xuser_project_wrapper_202 user_project_wrapper_202/VGND VSUBS user_project_wrapper_202/VPB
+ user_project_wrapper_202/VPWR user_project_wrapper_202/HI la_data_out[91] sky130_fd_sc_hd__conb_1
Xfanout54 output45/A output33/VGND VSUBS fanout54/VPB fanout54/VPWR output41/A sky130_fd_sc_hd__clkbuf_4
Xuser_project_wrapper_246 user_project_wrapper_246/VGND VSUBS user_project_wrapper_246/VPB
+ user_project_wrapper_246/VPWR user_project_wrapper_246/HI wbs_dat_o[8] sky130_fd_sc_hd__conb_1
Xuser_project_wrapper_224 user_project_wrapper_224/VGND VSUBS user_project_wrapper_224/VPB
+ user_project_wrapper_224/VPWR user_project_wrapper_224/HI wbs_dat_o[17] sky130_fd_sc_hd__conb_1
Xuser_project_wrapper_213 user_project_wrapper_213/VGND VSUBS user_project_wrapper_213/VPB
+ user_project_wrapper_213/VPWR user_project_wrapper_213/HI user_irq[1] sky130_fd_sc_hd__conb_1
Xuser_project_wrapper_235 user_project_wrapper_235/VGND VSUBS user_project_wrapper_235/VPB
+ user_project_wrapper_235/VPWR user_project_wrapper_235/HI wbs_dat_o[27] sky130_fd_sc_hd__conb_1
Xuser_project_wrapper_59 user_project_wrapper_59/VGND VSUBS user_project_wrapper_59/VPB
+ user_project_wrapper_59/VPWR user_project_wrapper_59/HI io_out[0] sky130_fd_sc_hd__conb_1
Xuser_project_wrapper_203 user_project_wrapper_203/VGND VSUBS user_project_wrapper_203/VPB
+ user_project_wrapper_203/VPWR user_project_wrapper_203/HI la_data_out[92] sky130_fd_sc_hd__conb_1
Xuser_project_wrapper_247 user_project_wrapper_247/VGND VSUBS user_project_wrapper_247/VPB
+ user_project_wrapper_247/VPWR user_project_wrapper_247/HI wbs_dat_o[9] sky130_fd_sc_hd__conb_1
Xuser_project_wrapper_225 user_project_wrapper_225/VGND VSUBS user_project_wrapper_225/VPB
+ user_project_wrapper_225/VPWR user_project_wrapper_225/HI wbs_dat_o[18] sky130_fd_sc_hd__conb_1
Xuser_project_wrapper_214 user_project_wrapper_214/VGND VSUBS user_project_wrapper_214/VPB
+ user_project_wrapper_214/VPWR user_project_wrapper_214/HI user_irq[2] sky130_fd_sc_hd__conb_1
Xuser_project_wrapper_236 user_project_wrapper_236/VGND VSUBS user_project_wrapper_236/VPB
+ user_project_wrapper_236/VPWR user_project_wrapper_236/HI wbs_dat_o[28] sky130_fd_sc_hd__conb_1
Xfanout55 wire58/A fanout55/VGND VSUBS output14/VPB output14/VPWR output45/A sky130_fd_sc_hd__buf_12
Xinput1 wb_rst_i input1/VGND VSUBS input1/VPB input1/VPWR wire58/A sky130_fd_sc_hd__buf_12
Xfanout56 output44/A output18/VGND VSUBS output18/VPB output18/VPWR output28/A sky130_fd_sc_hd__buf_6
Xuser_project_wrapper_204 user_project_wrapper_204/VGND VSUBS user_project_wrapper_204/VPB
+ user_project_wrapper_204/VPWR user_project_wrapper_204/HI la_data_out[93] sky130_fd_sc_hd__conb_1
Xuser_project_wrapper_215 user_project_wrapper_215/VGND VSUBS user_project_wrapper_215/VPB
+ user_project_wrapper_215/VPWR user_project_wrapper_215/HI wbs_ack_o sky130_fd_sc_hd__conb_1
Xuser_project_wrapper_226 user_project_wrapper_226/VGND VSUBS user_project_wrapper_226/VPB
+ user_project_wrapper_226/VPWR user_project_wrapper_226/HI wbs_dat_o[19] sky130_fd_sc_hd__conb_1
Xuser_project_wrapper_237 user_project_wrapper_237/VGND VSUBS user_project_wrapper_237/VPB
+ user_project_wrapper_237/VPWR user_project_wrapper_237/HI wbs_dat_o[29] sky130_fd_sc_hd__conb_1
Xuser_project_wrapper_205 user_project_wrapper_205/VGND VSUBS user_project_wrapper_205/VPB
+ user_project_wrapper_205/VPWR user_project_wrapper_205/HI la_data_out[94] sky130_fd_sc_hd__conb_1
Xuser_project_wrapper_238 user_project_wrapper_238/VGND VSUBS user_project_wrapper_238/VPB
+ user_project_wrapper_238/VPWR user_project_wrapper_238/HI wbs_dat_o[2] sky130_fd_sc_hd__conb_1
Xuser_project_wrapper_227 user_project_wrapper_227/VGND VSUBS user_project_wrapper_227/VPB
+ user_project_wrapper_227/VPWR user_project_wrapper_227/HI wbs_dat_o[1] sky130_fd_sc_hd__conb_1
Xuser_project_wrapper_216 user_project_wrapper_216/VGND VSUBS user_project_wrapper_216/VPB
+ user_project_wrapper_216/VPWR user_project_wrapper_216/HI wbs_dat_o[0] sky130_fd_sc_hd__conb_1
Xfanout57 wire58/X output42/VGND VSUBS fanout57/VPB fanout57/VPWR output44/A sky130_fd_sc_hd__buf_12
Xuser_project_wrapper_206 user_project_wrapper_206/VGND VSUBS user_project_wrapper_206/VPB
+ user_project_wrapper_206/VPWR user_project_wrapper_206/HI la_data_out[95] sky130_fd_sc_hd__conb_1
Xuser_project_wrapper_217 user_project_wrapper_217/VGND VSUBS user_project_wrapper_217/VPB
+ user_project_wrapper_217/VPWR user_project_wrapper_217/HI wbs_dat_o[10] sky130_fd_sc_hd__conb_1
Xuser_project_wrapper_228 user_project_wrapper_228/VGND VSUBS user_project_wrapper_228/VPB
+ user_project_wrapper_228/VPWR user_project_wrapper_228/HI wbs_dat_o[20] sky130_fd_sc_hd__conb_1